plots/csv/rotor_angle_dev_bus21_julia.csv
t_s,rotor_angle_dev_rad,bus_voltage_angle_dev_rad,angle_source,angle_is_exact_bus_voltage
0.0,0.0,0.0,Vmag_get_voltage_magnitude_series__angle_get_voltage_angle_series,true
0.01,1.02695629777827e-15,1.02695629777827e-15,Vmag_get_voltage_magnitude_series__angle_get_voltage_angle_series,true
0.02,1.7763568394003078e-16,1.7763568394003078e-16,Vmag_get_voltage_magnitude_series__angle_get_voltage_angle_series,true
0.03,1.1518563880483293e-16,1.1518563880483293e-16,Vmag_get_voltage_magnitude_series__angle_get_voltage_angle_series,true
0.04,-1.6653345369380868e-16,-1.6653345369380868e-16,Vmag_get_voltage_magnitude_series__angle_get_voltage_angle_series,true
0.05,-9.020562075082358e-17,-9.020562075082358e-17,Vmag_get_voltage_magnitude_series__angle_get_voltage_angle_series,true
0.06,1.5681900222829903e-16,1.5681900222829903e-16,Vmag_get_voltage_magnitude_series__angle_get_voltage_angle_series,true
0.07,4.593547764386361e-16,4.593547764386361e-16,Vmag_get_voltage_magnitude_series__angle_get_voltage_angle_series,true
0.08,1.5404344466671298e-16,1.5404344466671298e-16,Vmag_get_voltage_magnitude_series__angle_get_voltage_angle_series,true
0.09,-2.789435349370616e-16,-2.789435349370616e-16,Vmag_get_voltage_magnitude_series__angle_get_voltage_angle_series,true
0.1,-1.3877787807814457e-17,-1.3877787807814457e-17,Vmag_get_voltage_magnitude_series__angle_get_voltage_angle_series,true
0.11,-0.006685006491318265,-0.006685006491318265,Vmag_get_voltage_magnitude_series__angle_get_voltage_angle_series,true
0.12,-0.0069191040306034665,-0.0069191040306034665,Vmag_get_voltage_magnitude_series__angle_get_voltage_angle_series,true
0.13,-0.0066183777039482295,-0.0066183777039482295,Vmag_get_voltage_magnitude_series__angle_get_voltage_angle_series,true
0.14,-0.006597496682521881,-0.006597496682521881,Vmag_get_voltage_magnitude_series__angle_get_voltage_angle_series,true
0.15,-0.006706115320730797,-0.006706115320730797,Vmag_get_voltage_magnitude_series__angle_get_voltage_angle_series,true
0.16,-0.006944775028502954,-0.006944775028502954,Vmag_get_voltage_magnitude_series__angle_get_voltage_angle_series,true
0.17,-0.007272006638615303,-0.007272006638615303,Vmag_get_voltage_magnitude_series__angle_get_voltage_angle_series,true
0.18,-0.007670310419548722,-0.007670310419548722,Vmag_get_voltage_magnitude_series__angle_get_voltage_angle_series,true
0.19,-0.008118311148889746,-0.008118311148889746,Vmag_get_voltage_magnitude_series__angle_get_voltage_angle_series,true
0.2,-0.008602852242772551,-0.008602852242772551,Vmag_get_voltage_magnitude_series__angle_get_voltage_angle_series,true
0.21,-0.009111656161322352,-0.009111656161322352,Vmag_get_voltage_magnitude_series__angle_get_voltage_angle_series,true
0.22,-0.009635013531165528,-0.009635013531165528,Vmag_get_voltage_magnitude_series__angle_get_voltage_angle_series,true
0.23,-0.010164683732029703,-0.010164683732029703,Vmag_get_voltage_magnitude_series__angle_get_voltage_angle_series,true
0.24,-0.010694282544286844,-0.010694282544286844,Vmag_get_voltage_magnitude_series__angle_get_voltage_angle_series,true
0.25,-0.011218949029034971,-0.011218949029034971,Vmag_get_voltage_magnitude_series__angle_get_voltage_angle_series,true
0.26,-0.011735287529953403,-0.011735287529953403,Vmag_get_voltage_magnitude_series__angle_get_voltage_angle_series,true
0.27,-0.012241161528801552,-0.012241161528801552,Vmag_get_voltage_magnitude_series__angle_get_voltage_angle_series,true
0.28,-0.012735529163406725,-0.012735529163406725,Vmag_get_voltage_magnitude_series__angle_get_voltage_angle_series,true
0.29,-0.013218246828633973,-0.013218246828633973,Vmag_get_voltage_magnitude_series__angle_get_voltage_angle_series,true
0.3,-0.013689880156343415,-0.013689880156343415,Vmag_get_voltage_magnitude_series__angle_get_voltage_angle_series,true
0.31,-0.014151517334576532,-0.014151517334576532,Vmag_get_voltage_magnitude_series__angle_get_voltage_angle_series,true
0.32,-0.014604594184694458,-0.014604594184694458,Vmag_get_voltage_magnitude_series__angle_get_voltage_angle_series,true
0.33,-0.01505073489186517,-0.01505073489186517,Vmag_get_voltage_magnitude_series__angle_get_voltage_angle_series,true
0.34,-0.015491612502363895,-0.015491612502363895,Vmag_get_voltage_magnitude_series__angle_get_voltage_angle_series,true
0.35,-0.015928831556582528,-0.015928831556582528,Vmag_get_voltage_magnitude_series__angle_get_voltage_angle_series,true
0.36,-0.016363834399671328,-0.016363834399671328,Vmag_get_voltage_magnitude_series__angle_get_voltage_angle_series,true
0.37,-0.016797831070952573,-0.016797831070952573,Vmag_get_voltage_magnitude_series__angle_get_voltage_angle_series,true
0.38,-0.017231752027721314,-0.017231752027721314,Vmag_get_voltage_magnitude_series__angle_get_voltage_angle_series,true
0.39,-0.01766622191378335,-0.01766622191378335,Vmag_get_voltage_magnitude_series__angle_get_voltage_angle_series,true
0.4,-0.018101551752652326,-0.018101551752652326,Vmag_get_voltage_magnitude_series__angle_get_voltage_angle_series,true
0.41,-0.018537747509654118,-0.018537747509654118,Vmag_get_voltage_magnitude_series__angle_get_voltage_angle_series,true
0.42,-0.018974530692145795,-0.018974530692145795,Vmag_get_voltage_magnitude_series__angle_get_voltage_angle_series,true
0.43,-0.019411369368853404,-0.019411369368853404,Vmag_get_voltage_magnitude_series__angle_get_voltage_angle_series,true
0.44,-0.01984751580589538,-0.01984751580589538,Vmag_get_voltage_magnitude_series__angle_get_voltage_angle_series,true
0.45,-0.02028204814460929,-0.02028204814460929,Vmag_get_voltage_magnitude_series__angle_get_voltage_angle_series,true
0.46,-0.020713914062761535,-0.020713914062761535,Vmag_get_voltage_magnitude_series__angle_get_voltage_angle_series,true
0.47,-0.02114197405342489,-0.02114197405342489,Vmag_get_voltage_magnitude_series__angle_get_voltage_angle_series,true
0.48,-0.021565042820320627,-0.021565042820320627,Vmag_get_voltage_magnitude_series__angle_get_voltage_angle_series,true
0.49,-0.021981927480175217,-0.021981927480175217,Vmag_get_voltage_magnitude_series__angle_get_voltage_angle_series,true
0.5,-0.022391461602718,-0.022391461602718,Vmag_get_voltage_magnitude_series__angle_get_voltage_angle_series,true
0.51,-0.02279253453545124,-0.02279253453545124,Vmag_get_voltage_magnitude_series__angle_get_voltage_angle_series,true
0.52,-0.023184115565672878,-0.023184115565672878,Vmag_get_voltage_magnitude_series__angle_get_voltage_angle_series,true
0.53,-0.023565272956256173,-0.023565272956256173,Vmag_get_voltage_magnitude_series__angle_get_voltage_angle_series,true
0.54,-0.023935187940125856,-0.023935187940125856,Vmag_get_voltage_magnitude_series__angle_get_voltage_angle_series,true
0.55,-0.02429316389745864,-0.02429316389745864,Vmag_get_voltage_magnitude_series__angle_get_voltage_angle_series,true
0.56,-0.0246386311527636,-0.0246386311527636,Vmag_get_voltage_magnitude_series__angle_get_voltage_angle_series,true
0.57,-0.02497114795982464,-0.02497114795982464,Vmag_get_voltage_magnitude_series__angle_get_voltage_angle_series,true
0.58,-0.025290398143597462,-0.025290398143597462,Vmag_get_voltage_magnitude_series__angle_get_voltage_angle_series,true
0.59,-0.025596185904084984,-0.025596185904084984,Vmag_get_voltage_magnitude_series__angle_get_voltage_angle_series,true
0.6,-0.025888428631198546,-0.025888428631198546,Vmag_get_voltage_magnitude_series__angle_get_voltage_angle_series,true
0.61,-0.026167147967194784,-0.026167147967194784,Vmag_get_voltage_magnitude_series__angle_get_voltage_angle_series,true
0.62,-0.026432459779813906,-0.026432459779813906,Vmag_get_voltage_magnitude_series__angle_get_voltage_angle_series,true
0.63,-0.026684563649798314,-0.026684563649798314,Vmag_get_voltage_magnitude_series__angle_get_voltage_angle_series,true
0.64,-0.026923731997586776,-0.026923731997586776,Vmag_get_voltage_magnitude_series__angle_get_voltage_angle_series,true
0.65,-0.027150299428022728,-0.027150299428022728,Vmag_get_voltage_magnitude_series__angle_get_voltage_angle_series,true
0.66,-0.02736465250516919,-0.02736465250516919,Vmag_get_voltage_magnitude_series__angle_get_voltage_angle_series,true
0.67,-0.027567220091910122,-0.027567220091910122,Vmag_get_voltage_magnitude_series__angle_get_voltage_angle_series,true
0.68,-0.02775846456111378,-0.02775846456111378,Vmag_get_voltage_magnitude_series__angle_get_voltage_angle_series,true
0.69,-0.027938873815188583,-0.027938873815188583,Vmag_get_voltage_magnitude_series__angle_get_voltage_angle_series,true
0.7,-0.02810895426751367,-0.02810895426751367,Vmag_get_voltage_magnitude_series__angle_get_voltage_angle_series,true
0.71,-0.02826922473533013,-0.02826922473533013,Vmag_get_voltage_magnitude_series__angle_get_voltage_angle_series,true
0.72,-0.028420211229538042,-0.028420211229538042,Vmag_get_voltage_magnitude_series__angle_get_voltage_angle_series,true
0.73,-0.02856244257539913,-0.02856244257539913,Vmag_get_voltage_magnitude_series__angle_get_voltage_angle_series,true
0.74,-0.028696446773960667,-0.028696446773960667,Vmag_get_voltage_magnitude_series__angle_get_voltage_angle_series,true
0.75,-0.028822748042761272,-0.028822748042761272,Vmag_get_voltage_magnitude_series__angle_get_voltage_angle_series,true
0.76,-0.028941864393624936,-0.028941864393624936,Vmag_get_voltage_magnitude_series__angle_get_voltage_angle_series,true
0.77,-0.029054305691817484,-0.029054305691817484,Vmag_get_voltage_magnitude_series__angle_get_voltage_angle_series,true
0.78,-0.029160572080282283,-0.029160572080282283,Vmag_get_voltage_magnitude_series__angle_get_voltage_angle_series,true
0.79,-0.029261152678189607,-0.029261152678189607,Vmag_get_voltage_magnitude_series__angle_get_voltage_angle_series,true
0.8,-0.029356524504903968,-0.029356524504903968,Vmag_get_voltage_magnitude_series__angle_get_voltage_angle_series,true
0.81,-0.029447151523254618,-0.029447151523254618,Vmag_get_voltage_magnitude_series__angle_get_voltage_angle_series,true
0.82,-0.029533483792503673,-0.029533483792503673,Vmag_get_voltage_magnitude_series__angle_get_voltage_angle_series,true
0.83,-0.02961595666843056,-0.02961595666843056,Vmag_get_voltage_magnitude_series__angle_get_voltage_angle_series,true
0.84,-0.029694990010597253,-0.029694990010597253,Vmag_get_voltage_magnitude_series__angle_get_voltage_angle_series,true
0.85,-0.02977098741867131,-0.02977098741867131,Vmag_get_voltage_magnitude_series__angle_get_voltage_angle_series,true
0.86,-0.029844335453756005,-0.029844335453756005,Vmag_get_voltage_magnitude_series__angle_get_voltage_angle_series,true
0.87,-0.02991540286513137,-0.02991540286513137,Vmag_get_voltage_magnitude_series__angle_get_voltage_angle_series,true
0.88,-0.029984539823653445,-0.029984539823653445,Vmag_get_voltage_magnitude_series__angle_get_voltage_angle_series,true
0.89,-0.03005207718108583,-0.03005207718108583,Vmag_get_voltage_magnitude_series__angle_get_voltage_angle_series,true
0.9,-0.030118325763812355,-0.030118325763812355,Vmag_get_voltage_magnitude_series__angle_get_voltage_angle_series,true
0.91,-0.030183575724939404,-0.030183575724939404,Vmag_get_voltage_magnitude_series__angle_get_voltage_angle_series,true
0.92,-0.030248095970590437,-0.030248095970590437,Vmag_get_voltage_magnitude_series__angle_get_voltage_angle_series,true
0.93,-0.030312133677844657,-0.030312133677844657,Vmag_get_voltage_magnitude_series__angle_get_voltage_angle_series,true
0.94,-0.030375913937009547,-0.030375913937009547,Vmag_get_voltage_magnitude_series__angle_get_voltage_angle_series,true
0.95,-0.0304396394895733,-0.0304396394895733,Vmag_get_voltage_magnitude_series__angle_get_voltage_angle_series,true
0.96,-0.030503490623275974,-0.030503490623275974,Vmag_get_voltage_magnitude_series__angle_get_voltage_angle_series,true
0.97,-0.03056762522150275,-0.03056762522150275,Vmag_get_voltage_magnitude_series__angle_get_voltage_angle_series,true
0.98,-0.030632178918034117,-0.030632178918034117,Vmag_get_voltage_magnitude_series__angle_get_voltage_angle_series,true
0.99,-0.03069726544348457,-0.03069726544348457,Vmag_get_voltage_magnitude_series__angle_get_voltage_angle_series,true
1.0,-0.030762977111122528,-0.030762977111122528,Vmag_get_voltage_magnitude_series__angle_get_voltage_angle_series,true
1.01,-0.03082938541324559,-0.03082938541324559,Vmag_get_voltage_magnitude_series__angle_get_voltage_angle_series,true
1.02,-0.03089654179534711,-0.03089654179534711,Vmag_get_voltage_magnitude_series__angle_get_voltage_angle_series,true
1.03,-0.030964478529327596,-0.030964478529327596,Vmag_get_voltage_magnitude_series__angle_get_voltage_angle_series,true
1.04,-0.031033209693498185,-0.031033209693498185,Vmag_get_voltage_magnitude_series__angle_get_voltage_angle_series,true
1.05,-0.031102732276830518,-0.031102732276830518,Vmag_get_voltage_magnitude_series__angle_get_voltage_angle_series,true
1.06,-0.031173027337520625,-0.031173027337520625,Vmag_get_voltage_magnitude_series__angle_get_voltage_angle_series,true
1.07,-0.03124406124883604,-0.03124406124883604,Vmag_get_voltage_magnitude_series__angle_get_voltage_angle_series,true
1.08,-0.03131578699250084,-0.03131578699250084,Vmag_get_voltage_magnitude_series__angle_get_voltage_angle_series,true
1.09,-0.03138814548924052,-0.03138814548924052,Vmag_get_voltage_magnitude_series__angle_get_voltage_angle_series,true
1.1,-0.03146106695465846,-0.03146106695465846,Vmag_get_voltage_magnitude_series__angle_get_voltage_angle_series,true
1.11,-0.03153447225775408,-0.03153447225775408,Vmag_get_voltage_magnitude_series__angle_get_voltage_angle_series,true
1.12,-0.031608274283136464,-0.031608274283136464,Vmag_get_voltage_magnitude_series__angle_get_voltage_angle_series,true
1.13,-0.03168237927147736,-0.03168237927147736,Vmag_get_voltage_magnitude_series__angle_get_voltage_angle_series,true
1.14,-0.031756688130630414,-0.031756688130630414,Vmag_get_voltage_magnitude_series__angle_get_voltage_angle_series,true
1.15,-0.031831097711052116,-0.031831097711052116,Vmag_get_voltage_magnitude_series__angle_get_voltage_angle_series,true
1.16,-0.0319055020350937,-0.0319055020350937,Vmag_get_voltage_magnitude_series__angle_get_voltage_angle_series,true
1.17,-0.03197979346894686,-0.03197979346894686,Vmag_get_voltage_magnitude_series__angle_get_voltage_angle_series,true
1.18,-0.03205386383478291,-0.03205386383478291,Vmag_get_voltage_magnitude_series__angle_get_voltage_angle_series,true
1.19,-0.032127605459571086,-0.032127605459571086,Vmag_get_voltage_magnitude_series__angle_get_voltage_angle_series,true
1.2,-0.0322009121497049,-0.0322009121497049,Vmag_get_voltage_magnitude_series__angle_get_voltage_angle_series,true
1.21,-0.03227368009443433,-0.03227368009443433,Vmag_get_voltage_magnitude_series__angle_get_voltage_angle_series,true
1.22,-0.032345808696229134,-0.032345808696229134,Vmag_get_voltage_magnitude_series__angle_get_voltage_angle_series,true
1.23,-0.03241720131967681,-0.03241720131967681,Vmag_get_voltage_magnitude_series__angle_get_voltage_angle_series,true
1.24,-0.03248776596663283,-0.03248776596663283,Vmag_get_voltage_magnitude_series__angle_get_voltage_angle_series,true
1.25,-0.032557415873525855,-0.032557415873525855,Vmag_get_voltage_magnitude_series__angle_get_voltage_angle_series,true
1.26,-0.03262607003190491,-0.03262607003190491,Vmag_get_voltage_magnitude_series__angle_get_voltage_angle_series,true
1.27,-0.03269365363213729,-0.03269365363213729,Vmag_get_voltage_magnitude_series__angle_get_voltage_angle_series,true
1.28,-0.032760098435014734,-0.032760098435014734,Vmag_get_voltage_magnitude_series__angle_get_voltage_angle_series,true
1.29,-0.0328253430712986,-0.0328253430712986,Vmag_get_voltage_magnitude_series__angle_get_voltage_angle_series,true
1.3,-0.03288933327030034,-0.03288933327030034,Vmag_get_voltage_magnitude_series__angle_get_voltage_angle_series,true
1.31,-0.03295202202367967,-0.03295202202367967,Vmag_get_voltage_magnitude_series__angle_get_voltage_angle_series,true
1.32,-0.033013369680831336,-0.033013369680831336,Vmag_get_voltage_magnitude_series__angle_get_voltage_angle_series,true
1.33,-0.03307334398810886,-0.03307334398810886,Vmag_get_voltage_magnitude_series__angle_get_voltage_angle_series,true
1.34,-0.03313192006809105,-0.03313192006809105,Vmag_get_voltage_magnitude_series__angle_get_voltage_angle_series,true
1.35,-0.03318908034007523,-0.03318908034007523,Vmag_get_voltage_magnitude_series__angle_get_voltage_angle_series,true
1.36,-0.03324481439811928,-0.03324481439811928,Vmag_get_voltage_magnitude_series__angle_get_voltage_angle_series,true
1.37,-0.03329911883036075,-0.03329911883036075,Vmag_get_voltage_magnitude_series__angle_get_voltage_angle_series,true
1.38,-0.03335199700584634,-0.03335199700584634,Vmag_get_voltage_magnitude_series__angle_get_voltage_angle_series,true
1.39,-0.03340345881283298,-0.03340345881283298,Vmag_get_voltage_magnitude_series__angle_get_voltage_angle_series,true
1.4,-0.03345352036158291,-0.03345352036158291,Vmag_get_voltage_magnitude_series__angle_get_voltage_angle_series,true
1.41,-0.033502203661055746,-0.033502203661055746,Vmag_get_voltage_magnitude_series__angle_get_voltage_angle_series,true
1.42,-0.033549536259151407,-0.033549536259151407,Vmag_get_voltage_magnitude_series__angle_get_voltage_angle_series,true
1.43,-0.033595550860050304,-0.033595550860050304,Vmag_get_voltage_magnitude_series__angle_get_voltage_angle_series,true
1.44,-0.03364028492556042,-0.03364028492556042,Vmag_get_voltage_magnitude_series__angle_get_voltage_angle_series,true
1.45,-0.033683780252690004,-0.033683780252690004,Vmag_get_voltage_magnitude_series__angle_get_voltage_angle_series,true
1.46,-0.0337260825399431,-0.0337260825399431,Vmag_get_voltage_magnitude_series__angle_get_voltage_angle_series,true
1.47,-0.033767240946281876,-0.033767240946281876,Vmag_get_voltage_magnitude_series__angle_get_voltage_angle_series,true
1.48,-0.03380730764137639,-0.03380730764137639,Vmag_get_voltage_magnitude_series__angle_get_voltage_angle_series,true
1.49,-0.03384633735281565,-0.03384633735281565,Vmag_get_voltage_magnitude_series__angle_get_voltage_angle_series,true
1.5,-0.03388438691440303,-0.03388438691440303,Vmag_get_voltage_magnitude_series__angle_get_voltage_angle_series,true
1.51,-0.033921514820365796,-0.033921514820365796,Vmag_get_voltage_magnitude_series__angle_get_voltage_angle_series,true
1.52,-0.03395778078263512,-0.03395778078263512,Vmag_get_voltage_magnitude_series__angle_get_voltage_angle_series,true
1.53,-0.03399324530077325,-0.03399324530077325,Vmag_get_voltage_magnitude_series__angle_get_voltage_angle_series,true
1.54,-0.03402796924247348,-0.03402796924247348,Vmag_get_voltage_magnitude_series__angle_get_voltage_angle_series,true
1.55,-0.034062013438956665,-0.034062013438956665,Vmag_get_voltage_magnitude_series__angle_get_voltage_angle_series,true
1.56,-0.03409543829886438,-0.03409543829886438,Vmag_get_voltage_magnitude_series__angle_get_voltage_angle_series,true
1.57,-0.03412830343854532,-0.03412830343854532,Vmag_get_voltage_magnitude_series__angle_get_voltage_angle_series,true
1.58,-0.03416066733515455,-0.03416066733515455,Vmag_get_voltage_magnitude_series__angle_get_voltage_angle_series,true
1.59,-0.03419258700154981,-0.03419258700154981,Vmag_get_voltage_magnitude_series__angle_get_voltage_angle_series,true
1.6,-0.03422411768435584,-0.03422411768435584,Vmag_get_voltage_magnitude_series__angle_get_voltage_angle_series,true
1.61,-0.03425531258712259,-0.03425531258712259,Vmag_get_voltage_magnitude_series__angle_get_voltage_angle_series,true
1.62,-0.03428622261929272,-0.03428622261929272,Vmag_get_voltage_magnitude_series__angle_get_voltage_angle_series,true
1.63,-0.034316896171251346,-0.034316896171251346,Vmag_get_voltage_magnitude_series__angle_get_voltage_angle_series,true
1.64,-0.03434737891600572,-0.03434737891600572,Vmag_get_voltage_magnitude_series__angle_get_voltage_angle_series,true
1.65,-0.03437771363755538,-0.03437771363755538,Vmag_get_voltage_magnitude_series__angle_get_voltage_angle_series,true
1.66,-0.03440794008741576,-0.03440794008741576,Vmag_get_voltage_magnitude_series__angle_get_voltage_angle_series,true
1.67,-0.034438094866692824,-0.034438094866692824,Vmag_get_voltage_magnitude_series__angle_get_voltage_angle_series,true
1.68,-0.034468211334427984,-0.034468211334427984,Vmag_get_voltage_magnitude_series__angle_get_voltage_angle_series,true
1.69,-0.03449831954245207,-0.03449831954245207,Vmag_get_voltage_magnitude_series__angle_get_voltage_angle_series,true
1.7,-0.03452844619701233,-0.03452844619701233,Vmag_get_voltage_magnitude_series__angle_get_voltage_angle_series,true
1.71,-0.03455861464055838,-0.03455861464055838,Vmag_get_voltage_magnitude_series__angle_get_voltage_angle_series,true
1.72,-0.034588844860274276,-0.034588844860274276,Vmag_get_voltage_magnitude_series__angle_get_voltage_angle_series,true
1.73,-0.034619153520197295,-0.034619153520197295,Vmag_get_voltage_magnitude_series__angle_get_voltage_angle_series,true
1.74,-0.034649554008995734,-0.034649554008995734,Vmag_get_voltage_magnitude_series__angle_get_voltage_angle_series,true
1.75,-0.03468005651248126,-0.03468005651248126,Vmag_get_voltage_magnitude_series__angle_get_voltage_angle_series,true
1.76,-0.03471066810425359,-0.03471066810425359,Vmag_get_voltage_magnitude_series__angle_get_voltage_angle_series,true
1.77,-0.034741392849176975,-0.034741392849176975,Vmag_get_voltage_magnitude_series__angle_get_voltage_angle_series,true
1.78,-0.03477223192716498,-0.03477223192716498,Vmag_get_voltage_magnitude_series__angle_get_voltage_angle_series,true
1.79,-0.034803183769105205,-0.034803183769105205,Vmag_get_voltage_magnitude_series__angle_get_voltage_angle_series,true
1.8,-0.03483424420383114,-0.03483424420383114,Vmag_get_voltage_magnitude_series__angle_get_voltage_angle_series,true
1.81,-0.03486540661774027,-0.03486540661774027,Vmag_get_voltage_magnitude_series__angle_get_voltage_angle_series,true
1.82,-0.034896662124035714,-0.034896662124035714,Vmag_get_voltage_magnitude_series__angle_get_voltage_angle_series,true
1.83,-0.034927999736977806,-0.034927999736977806,Vmag_get_voltage_magnitude_series__angle_get_voltage_angle_series,true
1.84,-0.034959406555286156,-0.034959406555286156,Vmag_get_voltage_magnitude_series__angle_get_voltage_angle_series,true
1.85,-0.03499086794850527,-0.03499086794850527,Vmag_get_voltage_magnitude_series__angle_get_voltage_angle_series,true
1.86,-0.03502236774702232,-0.03502236774702232,Vmag_get_voltage_magnitude_series__angle_get_voltage_angle_series,true
1.87,-0.03505388843322664,-0.03505388843322664,Vmag_get_voltage_magnitude_series__angle_get_voltage_angle_series,true
1.88,-0.03508541133396958,-0.03508541133396958,Vmag_get_voltage_magnitude_series__angle_get_voltage_angle_series,true
1.89,-0.03511691681101679,-0.03511691681101679,Vmag_get_voltage_magnitude_series__angle_get_voltage_angle_series,true
1.9,-0.03514838444975094,-0.03514838444975094,Vmag_get_voltage_magnitude_series__angle_get_voltage_angle_series,true
1.91,-0.03517979324419291,-0.03517979324419291,Vmag_get_voltage_magnitude_series__angle_get_voltage_angle_series,true
1.92,-0.035211121777744846,-0.035211121777744846,Vmag_get_voltage_magnitude_series__angle_get_voltage_angle_series,true
1.93,-0.035242348397967464,-0.035242348397967464,Vmag_get_voltage_magnitude_series__angle_get_voltage_angle_series,true
1.94,-0.035273451384911836,-0.035273451384911836,Vmag_get_voltage_magnitude_series__angle_get_voltage_angle_series,true
1.95,-0.035304409112441384,-0.035304409112441384,Vmag_get_voltage_magnitude_series__angle_get_voltage_angle_series,true
1.96,-0.035335200200818824,-0.035335200200818824,Vmag_get_voltage_magnitude_series__angle_get_voltage_angle_series,true
1.97,-0.03536580366071755,-0.03536580366071755,Vmag_get_voltage_magnitude_series__angle_get_voltage_angle_series,true
1.98,-0.035396199028223295,-0.035396199028223295,Vmag_get_voltage_magnitude_series__angle_get_voltage_angle_series,true
1.99,-0.035426366489145204,-0.035426366489145204,Vmag_get_voltage_magnitude_series__angle_get_voltage_angle_series,true
...
